Version 4
SHEET 1 6740 4356
WIRE -1392 512 -1392 496
WIRE 384 560 384 544
WIRE -1392 592 -1392 512
WIRE -1328 592 -1392 592
WIRE -1248 592 -1328 592
WIRE -1088 592 -1248 592
WIRE -1088 624 -1088 592
WIRE 384 640 384 560
WIRE 448 640 384 640
WIRE 528 640 448 640
WIRE 688 640 528 640
WIRE 688 672 688 640
WIRE -1088 768 -1088 688
WIRE -1088 816 -1088 768
WIRE -1024 816 -1024 768
WIRE -1024 864 -1024 816
WIRE 688 864 688 736
WIRE -1088 912 -1088 816
WIRE -1088 912 -1232 912
WIRE 752 912 752 864
WIRE -1744 960 -1744 912
WIRE -1664 960 -1744 960
WIRE -1600 960 -1664 960
WIRE -1232 960 -1232 912
WIRE -1040 960 -1136 960
WIRE -1024 960 -1040 960
WIRE -864 960 -960 960
WIRE -688 960 -800 960
WIRE -560 960 -688 960
WIRE 688 960 688 864
WIRE 688 960 544 960
WIRE -1744 976 -1744 960
WIRE -1264 976 -1328 976
WIRE 32 1008 32 960
WIRE 112 1008 32 1008
WIRE 176 1008 112 1008
WIRE 544 1008 544 960
WIRE 736 1008 640 1008
WIRE 752 1008 736 1008
WIRE 912 1008 816 1008
WIRE 1088 1008 976 1008
WIRE 1216 1008 1088 1008
WIRE -1632 1024 -1664 1024
WIRE -1600 1024 -1632 1024
WIRE 32 1024 32 1008
WIRE 512 1024 448 1024
WIRE -1264 1040 -1264 976
WIRE -1232 1040 -1264 1040
WIRE -1136 1040 -1232 1040
WIRE -1120 1040 -1136 1040
WIRE -1040 1040 -1040 960
WIRE -1040 1040 -1056 1040
WIRE -1040 1056 -1040 1040
WIRE -960 1056 -960 960
WIRE -1328 1072 -1328 976
WIRE 144 1072 112 1072
WIRE 176 1072 144 1072
WIRE -1744 1088 -1744 1056
WIRE -1392 1088 -1744 1088
WIRE 512 1088 512 1024
WIRE 544 1088 512 1088
WIRE 640 1088 544 1088
WIRE -2032 1104 -2064 1104
WIRE -2000 1104 -2032 1104
WIRE -1904 1104 -1936 1104
WIRE -1840 1104 -1904 1104
WIRE -1744 1104 -1744 1088
WIRE -1744 1104 -1776 1104
WIRE -1264 1104 -1328 1104
WIRE 736 1104 736 1008
WIRE 816 1104 816 1008
WIRE 912 1104 912 1008
WIRE 976 1104 976 1008
WIRE 448 1120 448 1024
WIRE 32 1136 32 1104
WIRE 384 1136 32 1136
WIRE -256 1152 -288 1152
WIRE -224 1152 -256 1152
WIRE -128 1152 -160 1152
WIRE -64 1152 -128 1152
WIRE 32 1152 32 1136
WIRE 32 1152 0 1152
WIRE 512 1152 448 1152
WIRE -1264 1184 -1264 1104
WIRE -1040 1184 -1040 1056
WIRE -1040 1184 -1136 1184
WIRE 912 1200 912 1104
WIRE 976 1200 976 1104
WIRE 512 1232 512 1152
WIRE 736 1232 736 1104
WIRE 736 1232 640 1232
WIRE -1136 1248 -1136 1184
WIRE -1040 1248 -1040 1184
WIRE -960 1248 -960 1056
WIRE 640 1296 640 1232
WIRE 736 1296 736 1232
WIRE 816 1296 816 1104
WIRE -1360 1584 -1360 1488
WIRE -1296 1584 -1360 1584
WIRE -1216 1584 -1296 1584
WIRE -1056 1584 -1216 1584
WIRE -1056 1616 -1056 1584
WIRE 512 1632 512 1536
WIRE 576 1632 512 1632
WIRE 656 1632 576 1632
WIRE 816 1632 656 1632
WIRE 816 1664 816 1632
WIRE -1056 1728 -1056 1680
WIRE 816 1776 816 1728
WIRE -1056 1808 -1056 1728
WIRE -992 1808 -992 1728
WIRE -992 1856 -992 1808
WIRE 816 1856 816 1776
WIRE 880 1856 880 1776
WIRE -1056 1904 -1056 1808
WIRE -1056 1904 -1200 1904
WIRE 880 1904 880 1856
WIRE -1712 1952 -1712 1904
WIRE -1632 1952 -1712 1952
WIRE -1568 1952 -1632 1952
WIRE -1200 1952 -1200 1904
WIRE -1008 1952 -1104 1952
WIRE -832 1952 -928 1952
WIRE -656 1952 -768 1952
WIRE -528 1952 -656 1952
WIRE 816 1952 816 1856
WIRE 816 1952 672 1952
WIRE -1712 1968 -1712 1952
WIRE -1232 1968 -1296 1968
WIRE 160 2000 160 1952
WIRE 240 2000 160 2000
WIRE 304 2000 240 2000
WIRE 672 2000 672 1952
WIRE 864 2000 768 2000
WIRE 1040 2000 944 2000
WIRE 1216 2000 1104 2000
WIRE 1344 2000 1216 2000
WIRE -1600 2016 -1632 2016
WIRE -1568 2016 -1600 2016
WIRE 160 2016 160 2000
WIRE 640 2016 576 2016
WIRE -1232 2032 -1232 1968
WIRE -1200 2032 -1232 2032
WIRE -1104 2032 -1200 2032
WIRE -1008 2048 -1008 1952
WIRE -928 2048 -928 1952
WIRE -832 2048 -832 1952
WIRE -768 2048 -768 1952
WIRE -1296 2064 -1296 1968
WIRE 272 2064 240 2064
WIRE 304 2064 272 2064
WIRE -1712 2080 -1712 2048
WIRE -1360 2080 -1712 2080
WIRE 640 2080 640 2016
WIRE 672 2080 640 2080
WIRE 768 2080 672 2080
WIRE -2000 2096 -2032 2096
WIRE -1968 2096 -2000 2096
WIRE -1872 2096 -1904 2096
WIRE -1808 2096 -1872 2096
WIRE -1712 2096 -1712 2080
WIRE -1712 2096 -1744 2096
WIRE -1232 2096 -1296 2096
WIRE 864 2096 864 2000
WIRE 944 2096 944 2000
WIRE 1040 2096 1040 2000
WIRE 1104 2096 1104 2000
WIRE 576 2112 576 2016
WIRE 160 2128 160 2096
WIRE 512 2128 160 2128
WIRE -832 2144 -832 2048
WIRE -768 2144 -768 2048
WIRE -128 2144 -160 2144
WIRE -96 2144 -128 2144
WIRE 0 2144 -32 2144
WIRE 64 2144 0 2144
WIRE 160 2144 160 2128
WIRE 160 2144 128 2144
WIRE 640 2144 576 2144
WIRE -1232 2176 -1232 2096
WIRE 1040 2192 1040 2096
WIRE 1104 2192 1104 2096
WIRE 640 2224 640 2144
WIRE -1008 2240 -1008 2048
WIRE -928 2240 -928 2048
WIRE 864 2288 864 2096
WIRE 944 2288 944 2096
WIRE -1344 2576 -1344 2480
WIRE -1280 2576 -1344 2576
WIRE -1200 2576 -1280 2576
WIRE -1040 2576 -1200 2576
WIRE -1040 2608 -1040 2576
WIRE 544 2640 544 2544
WIRE 608 2640 544 2640
WIRE 688 2640 608 2640
WIRE 848 2640 688 2640
WIRE 848 2672 848 2640
WIRE -1040 2720 -1040 2672
WIRE 848 2784 848 2736
WIRE -1040 2800 -1040 2720
WIRE -976 2800 -976 2720
WIRE -976 2848 -976 2800
WIRE 848 2864 848 2784
WIRE 912 2864 912 2784
WIRE -1696 2896 -1856 2896
WIRE -1040 2896 -1040 2800
WIRE -1040 2896 -1184 2896
WIRE 912 2912 912 2864
WIRE -1696 2944 -1696 2896
WIRE -1616 2944 -1696 2944
WIRE -1552 2944 -1616 2944
WIRE -1184 2944 -1184 2896
WIRE -992 2944 -1088 2944
WIRE -816 2944 -912 2944
WIRE -640 2944 -752 2944
WIRE -512 2944 -640 2944
WIRE -1696 2960 -1696 2944
WIRE 848 2960 848 2864
WIRE 848 2960 704 2960
WIRE -1584 3008 -1616 3008
WIRE -1552 3008 -1584 3008
WIRE 192 3008 192 2960
WIRE 272 3008 192 3008
WIRE 336 3008 272 3008
WIRE 704 3008 704 2960
WIRE 896 3008 800 3008
WIRE 976 3008 960 3008
WIRE 1072 3008 976 3008
WIRE 1248 3008 1136 3008
WIRE 1376 3008 1248 3008
WIRE -1088 3024 -1184 3024
WIRE 192 3024 192 3008
WIRE 672 3024 608 3024
WIRE -992 3040 -992 2944
WIRE -912 3040 -912 2944
WIRE -816 3040 -816 2944
WIRE -752 3040 -752 2944
WIRE -1184 3056 -1184 3024
WIRE -1184 3056 -1280 3056
WIRE -1696 3072 -1696 3040
WIRE -1344 3072 -1696 3072
WIRE 304 3072 272 3072
WIRE 336 3072 304 3072
WIRE -1984 3088 -2016 3088
WIRE -1952 3088 -1984 3088
WIRE -1856 3088 -1888 3088
WIRE -1792 3088 -1856 3088
WIRE -1696 3088 -1696 3072
WIRE -1696 3088 -1728 3088
WIRE -1216 3088 -1280 3088
WIRE 672 3088 672 3024
WIRE 704 3088 672 3088
WIRE 800 3088 704 3088
WIRE 896 3104 896 3008
WIRE 976 3104 976 3008
WIRE 1072 3104 1072 3008
WIRE 1136 3104 1136 3008
WIRE 608 3120 608 3024
WIRE 192 3136 192 3104
WIRE 544 3136 192 3136
WIRE -96 3152 -128 3152
WIRE -64 3152 -96 3152
WIRE 32 3152 0 3152
WIRE 96 3152 32 3152
WIRE 192 3152 192 3136
WIRE 192 3152 160 3152
WIRE 672 3152 608 3152
WIRE -1216 3168 -1216 3088
WIRE 896 3200 896 3104
WIRE 976 3200 976 3104
WIRE -992 3232 -992 3040
WIRE -912 3232 -912 3040
WIRE 672 3232 672 3152
WIRE 896 3296 896 3200
WIRE 976 3296 976 3200
WIRE -1296 3616 -1296 3520
WIRE -1152 3616 -1296 3616
WIRE -992 3616 -1152 3616
WIRE 448 3616 448 3520
WIRE 752 3616 448 3616
WIRE -992 3696 -992 3616
WIRE 752 3696 752 3616
WIRE -992 3760 -992 3696
WIRE -928 3760 -928 3696
WIRE 752 3760 752 3696
WIRE 816 3760 816 3696
WIRE -992 3840 -992 3760
WIRE -928 3840 -928 3760
WIRE 752 3840 752 3760
WIRE 816 3840 816 3760
WIRE -928 3888 -928 3840
WIRE 720 3888 528 3888
WIRE 816 3888 816 3840
WIRE -1024 3904 -1168 3904
WIRE 704 3904 608 3904
WIRE -1040 3920 -1136 3920
WIRE -1648 3936 -1808 3936
WIRE 96 3936 -64 3936
WIRE 608 3952 608 3904
WIRE 624 3952 608 3952
WIRE 704 3952 704 3904
WIRE 704 3952 688 3952
WIRE 720 3952 720 3888
WIRE 720 3952 704 3952
WIRE -1136 3968 -1136 3920
WIRE -1120 3968 -1136 3968
WIRE -1040 3968 -1040 3920
WIRE -1040 3968 -1056 3968
WIRE -1024 3968 -1024 3904
WIRE -1024 3968 -1040 3968
WIRE -1648 3984 -1648 3936
WIRE -1584 3984 -1648 3984
WIRE -592 3984 -704 3984
WIRE -464 3984 -592 3984
WIRE 624 3984 608 3984
WIRE 752 3984 752 3840
WIRE 752 3984 688 3984
WIRE 976 3984 896 3984
WIRE 1280 3984 1040 3984
WIRE -1648 4000 -1648 3984
WIRE -1408 4000 -1504 4000
WIRE -1312 4000 -1328 4000
WIRE -1216 4000 -1248 4000
WIRE -1120 4000 -1136 4000
WIRE -992 4000 -992 3840
WIRE -992 4000 -1056 4000
WIRE 96 4000 96 3936
WIRE 336 4000 240 4000
WIRE 432 4000 416 4000
WIRE 528 4000 528 3888
WIRE 528 4000 496 4000
WIRE 608 4048 608 3984
WIRE 896 4048 896 3984
WIRE 896 4048 608 4048
WIRE -1136 4064 -1136 4000
WIRE -768 4064 -768 3984
WIRE -768 4064 -1136 4064
WIRE -768 4080 -768 4064
WIRE -704 4080 -704 3984
WIRE -1216 4096 -1216 4000
WIRE -1216 4096 -1232 4096
WIRE -1168 4096 -1168 3904
WIRE -1168 4096 -1216 4096
WIRE -1136 4096 -1168 4096
WIRE 528 4096 528 4000
WIRE 528 4096 512 4096
WIRE -1648 4112 -1648 4080
WIRE -1504 4112 -1504 4000
WIRE -1504 4112 -1648 4112
WIRE -1488 4112 -1504 4112
WIRE -1296 4112 -1408 4112
WIRE 96 4112 96 4080
WIRE 240 4112 240 4000
WIRE 240 4112 96 4112
WIRE -1936 4128 -1968 4128
WIRE -1904 4128 -1936 4128
WIRE -1728 4128 -1840 4128
WIRE -1648 4128 -1648 4112
WIRE -1168 4128 -1232 4128
WIRE -48 4128 -224 4128
WIRE 32 4128 -48 4128
WIRE 96 4128 96 4112
WIRE 240 4176 240 4112
WIRE 464 4176 240 4176
WIRE 560 4192 512 4192
WIRE -1168 4208 -1168 4128
WIRE 560 4208 560 4192
FLAG 976 3360 0
FLAG 544 2464 0
FLAG -208 3152 0
FLAG 1456 3008 0
FLAG 688 2704 0
FLAG -96 3152 Vin87
FLAG 32 3232 0
FLAG 192 2880 0
FLAG 912 2912 0
FLAG 608 2704 0
FLAG 304 3072 0
FLAG 896 3360 0
FLAG 672 3232 0
FLAG 1248 3008 vout_87
FLAG -912 3296 0
FLAG -1344 2400 0
FLAG -2096 3088 0
FLAG -432 2944 0
FLAG -1200 2640 0
FLAG -1984 3088 Vin81
FLAG -1856 3168 0
FLAG -976 2848 0
FLAG -1280 2640 0
FLAG -1584 3008 0
FLAG -992 3296 0
FLAG -1216 3168 0
FLAG -640 2944 vout_81
FLAG -1344 2640 0
FLAG -1856 2976 0
FLAG 944 2352 0
FLAG 512 1456 0
FLAG -240 2144 0
FLAG 1424 2000 0
FLAG 656 1696 0
FLAG 0 2224 0
FLAG 160 1872 0
FLAG 880 1904 0
FLAG 576 1696 0
FLAG 272 2064 0
FLAG 864 2352 0
FLAG 640 2224 0
FLAG 1216 2000 vout_50
FLAG -128 2144 Vin50
FLAG -928 2304 0
FLAG -1360 1408 0
FLAG -2112 2096 0
FLAG -448 1952 0
FLAG -1216 1648 0
FLAG -1872 2176 0
FLAG -1712 1824 0
FLAG -992 1856 0
FLAG -1296 1648 0
FLAG -1600 2016 0
FLAG -1008 2304 0
FLAG -1232 2176 0
FLAG -656 1952 vout_40
FLAG -2000 2096 Vin40
FLAG 816 1360 0
FLAG -368 1152 0
FLAG 1296 1008 0
FLAG 528 704 0
FLAG -128 1232 0
FLAG 32 880 0
FLAG 752 912 0
FLAG 448 704 0
FLAG 144 1072 0
FLAG 736 1360 0
FLAG 512 1232 0
FLAG 1088 1008 vout_27
FLAG -256 1152 Vin27
FLAG 384 480 0
FLAG 640 1360 0
FLAG -960 1312 0
FLAG -2144 1104 0
FLAG -480 960 0
FLAG -1248 656 0
FLAG -1904 1184 0
FLAG -1744 832 0
FLAG -1024 864 0
FLAG -1328 656 0
FLAG -1632 1024 0
FLAG -1040 1312 0
FLAG -1264 1184 0
FLAG -688 960 vout_13
FLAG -2032 1104 Vin13
FLAG -1392 432 0
FLAG -1136 1312 0
FLAG -1296 3440 0
FLAG -2048 4128 0
FLAG -384 3984 0
FLAG -1152 3680 0
FLAG -1936 4128 VinJim
FLAG -928 3888 0
FLAG -1584 4048 0
FLAG -1168 4208 0
FLAG -592 3984 vout_Jim
FLAG -1808 4016 0
FLAG -1136 4160 0
FLAG 448 3440 0
FLAG -304 4128 0
FLAG 1360 3984 0
FLAG 816 3888 0
FLAG 560 4208 0
FLAG -64 4016 0
FLAG -48 4208 0
SYMBOL cap 0 3136 R90
WINDOW 0 0 32 VBottom 2
WINDOW 3 32 32 VTop 2
SYMATTR InstName C66
SYMATTR Value 200p
SYMBOL res 208 3120 R180
WINDOW 0 36 76 Left 2
WINDOW 3 36 40 Left 2
SYMATTR InstName R48
SYMATTR Value 75
SYMBOL cap 912 2768 R90
WINDOW 0 43 94 VBottom 2
WINDOW 3 34 38 VTop 2
SYMATTR InstName C71
SYMATTR Value 510p
SYMBOL cap 912 2848 R90
WINDOW 0 26 95 VBottom 2
WINDOW 3 32 32 VTop 2
SYMATTR InstName C72
SYMATTR Value 510p
SYMBOL cap 960 2992 R90
WINDOW 0 0 32 VBottom 2
WINDOW 3 32 32 VTop 2
SYMATTR InstName C74
SYMATTR Value 2.7p
SYMBOL cap 992 3360 R180
WINDOW 0 24 56 Left 2
WINDOW 3 24 8 Left 2
SYMATTR InstName C75
SYMATTR Value 36p
SYMBOL voltage 544 2560 R180
WINDOW 0 24 96 Left 2
WINDOW 3 24 16 Left 2
WINDOW 123 0 0 Left 0
WINDOW 39 0 0 Left 0
SYMATTR InstName V7
SYMATTR Value 50
SYMBOL res 1472 2992 R90
WINDOW 0 0 56 VBottom 2
WINDOW 3 32 56 VTop 2
SYMATTR InstName R51
SYMATTR Value 50
SYMBOL MRF101AN-BN-SP 576 3136 R0
SYMATTR InstName U7
SYMBOL cap 160 3136 R90
WINDOW 0 0 32 VBottom 2
WINDOW 3 32 32 VTop 2
SYMATTR InstName C68
SYMATTR Value 200p
SYMBOL ind 16 3136 R0
SYMATTR InstName L22
SYMATTR Value 36n
SYMBOL cap 288 3072 R180
WINDOW 0 24 56 Left 2
WINDOW 3 24 8 Left 2
SYMATTR InstName C70
SYMATTR Value 510p
SYMBOL cap 352 3072 R180
WINDOW 0 24 56 Left 2
WINDOW 3 24 8 Left 2
SYMATTR InstName C78
SYMATTR Value 1µ
SYMBOL voltage 192 2976 R180
WINDOW 0 24 96 Left 2
WINDOW 3 24 16 Left 2
WINDOW 123 0 0 Left 0
WINDOW 39 0 0 Left 0
SYMATTR InstName V8
SYMATTR Value 2.66
SYMBOL ind 688 2992 R0
SYMATTR InstName L20
SYMATTR Value 120n
SYMBOL ind 784 2992 R0
SYMATTR InstName L21
SYMATTR Value 33n
SYMBOL ind 992 3088 R90
WINDOW 0 5 56 VBottom 2
WINDOW 3 32 56 VTop 2
SYMATTR InstName L23
SYMATTR Value 120n
SYMBOL ind 992 3184 R90
WINDOW 0 5 56 VBottom 2
WINDOW 3 32 56 VTop 2
SYMATTR InstName L24
SYMATTR Value 120n
SYMBOL cap 1136 2992 R90
WINDOW 0 0 32 VBottom 2
WINDOW 3 32 32 VTop 2
SYMATTR InstName C76
SYMATTR Value 510p
SYMBOL cap 1136 3088 R90
WINDOW 0 0 32 VBottom 2
WINDOW 3 32 32 VTop 2
SYMATTR InstName C79
SYMATTR Value 510p
SYMBOL cap 672 2640 R0
SYMATTR InstName C73
SYMATTR Value 10n
SYMBOL cap 592 2640 R0
SYMATTR InstName C77
SYMATTR Value 1µ
SYMBOL cap 912 3360 R180
WINDOW 0 24 56 Left 2
WINDOW 3 24 8 Left 2
SYMATTR InstName C69
SYMATTR Value 100p
SYMBOL FerriteBead 848 2704 R0
SYMATTR InstName L19
SYMATTR Value 104n
SYMATTR SpiceLine Ipk=0.3 Rser=0.25 Rpar=85 Cpar=212f mfg="Würth Elektronik" pn="74279260 WE-CBF 0603"
SYMBOL cap 656 3088 R0
SYMATTR InstName C80
SYMATTR Value 22p
SYMBOL voltage -112 3152 R90
WINDOW 0 -32 56 VBottom 2
WINDOW 3 32 56 VTop 2
WINDOW 123 60 56 VTop 2
WINDOW 39 88 56 VTop 2
SYMATTR InstName V9
SYMATTR Value ""
SYMATTR Value2 AC 1
SYMATTR SpiceLine Rser=50
SYMBOL cap -1888 3072 R90
WINDOW 0 0 32 VBottom 2
WINDOW 3 32 32 VTop 2
SYMATTR InstName C1
SYMATTR Value 1n
SYMBOL res -1680 3056 R180
WINDOW 0 36 76 Left 2
WINDOW 3 36 40 Left 2
SYMATTR InstName R1
SYMATTR Value 75
SYMBOL cap -976 2704 R90
WINDOW 0 43 94 VBottom 2
WINDOW 3 34 38 VTop 2
SYMATTR InstName C2
SYMATTR Value 1n
SYMBOL cap -976 2784 R90
WINDOW 0 26 95 VBottom 2
WINDOW 3 32 32 VTop 2
SYMATTR InstName C3
SYMATTR Value 1n
SYMBOL cap -896 3296 R180
WINDOW 0 24 56 Left 2
WINDOW 3 24 8 Left 2
SYMATTR InstName C5
SYMATTR Value 68p
SYMBOL voltage -1344 2496 R180
WINDOW 0 24 96 Left 2
WINDOW 3 24 16 Left 2
WINDOW 123 0 0 Left 0
WINDOW 39 0 0 Left 0
SYMATTR InstName V1
SYMATTR Value 50
SYMBOL res -416 2928 R90
WINDOW 0 0 56 VBottom 2
WINDOW 3 32 56 VTop 2
SYMATTR InstName R2
SYMATTR Value 50
SYMBOL MRF101AN-BN-SP -1312 3072 R0
SYMATTR InstName U1
SYMBOL cap -1728 3072 R90
WINDOW 0 0 32 VBottom 2
WINDOW 3 32 32 VTop 2
SYMATTR InstName C6
SYMATTR Value 200p
SYMBOL ind -1872 3072 R0
SYMATTR InstName L1
SYMATTR Value 56n
SYMBOL cap -1600 3008 R180
WINDOW 0 24 56 Left 2
WINDOW 3 24 8 Left 2
SYMATTR InstName C7
SYMATTR Value 1µ
SYMBOL cap -1536 3008 R180
WINDOW 0 24 56 Left 2
WINDOW 3 24 8 Left 2
SYMATTR InstName C8
SYMATTR Value 10n
SYMBOL ind -1200 2928 R0
SYMATTR InstName L2
SYMATTR Value .88µ
SYMBOL ind -1104 2928 R0
SYMATTR InstName L3
SYMATTR Value 6.6n
SYMBOL ind -896 3024 R90
WINDOW 0 5 56 VBottom 2
WINDOW 3 32 56 VTop 2
SYMATTR InstName L4
SYMATTR Value 0.38µ
SYMBOL cap -752 2928 R90
WINDOW 0 0 32 VBottom 2
WINDOW 3 32 32 VTop 2
SYMATTR InstName C9
SYMATTR Value 1n
SYMBOL cap -752 3024 R90
WINDOW 0 0 32 VBottom 2
WINDOW 3 32 32 VTop 2
SYMATTR InstName C10
SYMATTR Value 1n
SYMBOL cap -1216 2576 R0
SYMATTR InstName C11
SYMATTR Value 10n
SYMBOL cap -1296 2576 R0
SYMATTR InstName C12
SYMATTR Value 1µ
SYMBOL cap -976 3296 R180
WINDOW 0 24 56 Left 2
WINDOW 3 24 8 Left 2
SYMATTR InstName C13
SYMATTR Value 100p
SYMBOL FerriteBead -1040 2640 R0
SYMATTR InstName L6
SYMATTR Value 104n
SYMATTR SpiceLine Ipk=0.3 Rser=0.25 Rpar=85 Cpar=212f mfg="Würth Elektronik" pn="74279260 WE-CBF 0603"
SYMBOL voltage -2000 3088 R90
WINDOW 0 -32 56 VBottom 2
WINDOW 3 32 56 VTop 2
WINDOW 123 60 56 VTop 2
WINDOW 39 88 56 VTop 2
SYMATTR InstName V3
SYMATTR Value ""
SYMATTR Value2 AC 1
SYMATTR SpiceLine Rser=50
SYMBOL cap -1360 2576 R0
SYMATTR InstName C4
SYMATTR Value 220µ
SYMBOL voltage -1856 2880 R0
WINDOW 123 0 0 Left 0
WINDOW 39 0 0 Left 0
SYMATTR InstName V2
SYMATTR Value 5
SYMBOL cap -32 2128 R90
WINDOW 0 0 32 VBottom 2
WINDOW 3 32 32 VTop 2
SYMATTR InstName C14
SYMATTR Value 82p
SYMBOL res 176 2112 R180
WINDOW 0 36 76 Left 2
WINDOW 3 36 40 Left 2
SYMATTR InstName R3
SYMATTR Value 75
SYMBOL cap 880 1760 R90
WINDOW 0 43 94 VBottom 2
WINDOW 3 34 38 VTop 2
SYMATTR InstName C15
SYMATTR Value 1n
SYMBOL cap 880 1840 R90
WINDOW 0 26 95 VBottom 2
WINDOW 3 32 32 VTop 2
SYMATTR InstName C16
SYMATTR Value 1n
SYMBOL cap 960 2352 R180
WINDOW 0 24 56 Left 2
WINDOW 3 24 8 Left 2
SYMATTR InstName C18
SYMATTR Value 68p
SYMBOL voltage 512 1552 R180
WINDOW 0 24 96 Left 2
WINDOW 3 24 16 Left 2
WINDOW 123 0 0 Left 0
WINDOW 39 0 0 Left 0
SYMATTR InstName V4
SYMATTR Value 50
SYMBOL res 1440 1984 R90
WINDOW 0 0 56 VBottom 2
WINDOW 3 32 56 VTop 2
SYMATTR InstName R4
SYMATTR Value 50
SYMBOL MRF101AN-BN-SP 544 2128 R0
SYMATTR InstName U2
SYMBOL cap 128 2128 R90
WINDOW 0 0 32 VBottom 2
WINDOW 3 32 32 VTop 2
SYMATTR InstName C19
SYMATTR Value 200p
SYMBOL ind -16 2128 R0
SYMATTR InstName L5
SYMATTR Value 100n
SYMBOL cap 256 2064 R180
WINDOW 0 24 56 Left 2
WINDOW 3 24 8 Left 2
SYMATTR InstName C20
SYMATTR Value 10n
SYMBOL cap 320 2064 R180
WINDOW 0 24 56 Left 2
WINDOW 3 24 8 Left 2
SYMATTR InstName C21
SYMATTR Value 1µ
SYMBOL voltage 160 1968 R180
WINDOW 0 24 96 Left 2
WINDOW 3 24 16 Left 2
WINDOW 123 0 0 Left 0
WINDOW 39 0 0 Left 0
SYMATTR InstName V5
SYMATTR Value 2.66
SYMBOL ind 656 1984 R0
SYMATTR InstName L7
SYMATTR Value 160n
SYMBOL ind 752 1984 R0
SYMATTR InstName L8
SYMATTR Value 17.5n
SYMBOL ind 960 2080 R90
WINDOW 0 5 56 VBottom 2
WINDOW 3 32 56 VTop 2
SYMATTR InstName L9
SYMATTR Value 110n
SYMBOL cap 1104 1984 R90
WINDOW 0 0 32 VBottom 2
WINDOW 3 32 32 VTop 2
SYMATTR InstName C22
SYMATTR Value 1n
SYMBOL cap 1104 2080 R90
WINDOW 0 0 32 VBottom 2
WINDOW 3 32 32 VTop 2
SYMATTR InstName C23
SYMATTR Value 1n
SYMBOL cap 640 1632 R0
SYMATTR InstName C24
SYMATTR Value 10n
SYMBOL cap 560 1632 R0
SYMATTR InstName C25
SYMATTR Value 1µ
SYMBOL cap 880 2352 R180
WINDOW 0 24 56 Left 2
WINDOW 3 24 8 Left 2
SYMATTR InstName C26
SYMATTR Value 180p
SYMBOL FerriteBead 816 1696 R0
SYMATTR InstName L11
SYMATTR Value 104n
SYMATTR SpiceLine Ipk=0.3 Rser=0.25 Rpar=85 Cpar=212f mfg="Würth Elektronik" pn="74279260 WE-CBF 0603"
SYMBOL voltage -144 2144 R90
WINDOW 0 -32 56 VBottom 2
WINDOW 3 32 56 VTop 2
WINDOW 123 60 56 VTop 2
WINDOW 39 88 56 VTop 2
SYMATTR InstName V6
SYMATTR Value ""
SYMATTR Value2 AC 1
SYMATTR SpiceLine Rser=50
SYMBOL cap 1104 2176 R90
WINDOW 0 0 32 VBottom 2
WINDOW 3 32 32 VTop 2
SYMATTR InstName C17
SYMATTR Value 1n
SYMBOL cap -1904 2080 R90
WINDOW 0 0 32 VBottom 2
WINDOW 3 32 32 VTop 2
SYMATTR InstName C27
SYMATTR Value 82p
SYMBOL res -1696 2064 R180
WINDOW 0 36 76 Left 2
WINDOW 3 36 40 Left 2
SYMATTR InstName R5
SYMATTR Value 75
SYMBOL cap -992 1712 R90
WINDOW 0 43 94 VBottom 2
WINDOW 3 34 38 VTop 2
SYMATTR InstName C28
SYMATTR Value 1n
SYMBOL cap -992 1792 R90
WINDOW 0 26 95 VBottom 2
WINDOW 3 32 32 VTop 2
SYMATTR InstName C29
SYMATTR Value 1n
SYMBOL cap -912 2304 R180
WINDOW 0 24 56 Left 2
WINDOW 3 24 8 Left 2
SYMATTR InstName C30
SYMATTR Value 82p
SYMBOL voltage -1360 1504 R180
WINDOW 0 24 96 Left 2
WINDOW 3 24 16 Left 2
WINDOW 123 0 0 Left 0
WINDOW 39 0 0 Left 0
SYMATTR InstName V10
SYMATTR Value 50
SYMBOL res -432 1936 R90
WINDOW 0 0 56 VBottom 2
WINDOW 3 32 56 VTop 2
SYMATTR InstName R6
SYMATTR Value 50
SYMBOL MRF101AN-BN-SP -1328 2080 R0
SYMATTR InstName U3
SYMBOL cap -1744 2080 R90
WINDOW 0 0 32 VBottom 2
WINDOW 3 32 32 VTop 2
SYMATTR InstName C31
SYMATTR Value 200p
SYMBOL ind -1888 2080 R0
SYMATTR InstName L10
SYMATTR Value 150n
SYMBOL cap -1616 2016 R180
WINDOW 0 24 56 Left 2
WINDOW 3 24 8 Left 2
SYMATTR InstName C32
SYMATTR Value 10n
SYMBOL cap -1552 2016 R180
WINDOW 0 24 56 Left 2
WINDOW 3 24 8 Left 2
SYMATTR InstName C33
SYMATTR Value 1µ
SYMBOL voltage -1712 1920 R180
WINDOW 0 24 96 Left 2
WINDOW 3 24 16 Left 2
WINDOW 123 0 0 Left 0
WINDOW 39 0 0 Left 0
SYMATTR InstName V11
SYMATTR Value 2.66
SYMBOL ind -1216 1936 R0
SYMATTR InstName L12
SYMATTR Value 160n
SYMBOL ind -1120 1936 R0
SYMATTR InstName L13
SYMATTR Value 17.5n
SYMBOL ind2 -912 2032 R90
WINDOW 0 5 56 VBottom 2
WINDOW 3 32 56 VTop 2
SYMATTR InstName L14
SYMATTR Value 110n
SYMATTR Type ind
SYMBOL cap -768 1936 R90
WINDOW 0 0 32 VBottom 2
WINDOW 3 32 32 VTop 2
SYMATTR InstName C34
SYMATTR Value 1n
SYMBOL cap -768 2032 R90
WINDOW 0 0 32 VBottom 2
WINDOW 3 32 32 VTop 2
SYMATTR InstName C35
SYMATTR Value 1n
SYMBOL cap -1232 1584 R0
SYMATTR InstName C36
SYMATTR Value 10n
SYMBOL cap -1312 1584 R0
SYMATTR InstName C37
SYMATTR Value 1µ
SYMBOL cap -992 2304 R180
WINDOW 0 24 56 Left 2
WINDOW 3 24 8 Left 2
SYMATTR InstName C38
SYMATTR Value 200p
SYMBOL FerriteBead -1056 1648 R0
SYMATTR InstName L15
SYMATTR Value 104n
SYMATTR SpiceLine Ipk=0.3 Rser=0.25 Rpar=85 Cpar=212f mfg="Würth Elektronik" pn="74279260 WE-CBF 0603"
SYMBOL voltage -2016 2096 R90
WINDOW 0 -32 56 VBottom 2
WINDOW 3 32 56 VTop 2
WINDOW 123 60 56 VTop 2
WINDOW 39 88 56 VTop 2
SYMATTR InstName V12
SYMATTR Value ""
SYMATTR Value2 AC 1
SYMATTR SpiceLine Rser=50
SYMBOL cap -768 2128 R90
WINDOW 0 0 32 VBottom 2
WINDOW 3 32 32 VTop 2
SYMATTR InstName C39
SYMATTR Value 1n
SYMBOL cap -160 1136 R90
WINDOW 0 0 32 VBottom 2
WINDOW 3 32 32 VTop 2
SYMATTR InstName C40
SYMATTR Value 82p
SYMBOL res 48 1120 R180
WINDOW 0 36 76 Left 2
WINDOW 3 36 40 Left 2
SYMATTR InstName R7
SYMATTR Value 75
SYMBOL cap 752 848 R90
WINDOW 0 26 95 VBottom 2
WINDOW 3 32 32 VTop 2
SYMATTR InstName C42
SYMATTR Value 6.8n
SYMBOL cap 832 1360 R180
WINDOW 0 24 56 Left 2
WINDOW 3 24 8 Left 2
SYMATTR InstName C43
SYMATTR Value 100p
SYMBOL res 1312 992 R90
WINDOW 0 0 56 VBottom 2
WINDOW 3 32 56 VTop 2
SYMATTR InstName R8
SYMATTR Value 50
SYMBOL MRF101AN-BN-SP 416 1136 R0
SYMATTR InstName U4
SYMBOL cap 0 1136 R90
WINDOW 0 0 32 VBottom 2
WINDOW 3 32 32 VTop 2
SYMATTR InstName C44
SYMATTR Value 200p
SYMBOL ind -144 1136 R0
SYMATTR InstName L16
SYMATTR Value 270n
SYMBOL cap 128 1072 R180
WINDOW 0 24 56 Left 2
WINDOW 3 24 8 Left 2
SYMATTR InstName C45
SYMATTR Value 10n
SYMBOL cap 192 1072 R180
WINDOW 0 24 56 Left 2
WINDOW 3 24 8 Left 2
SYMATTR InstName C46
SYMATTR Value 1µ
SYMBOL voltage 32 976 R180
WINDOW 0 24 96 Left 2
WINDOW 3 24 16 Left 2
WINDOW 123 0 0 Left 0
WINDOW 39 0 0 Left 0
SYMATTR InstName V13
SYMATTR Value 2.66
SYMBOL ind 528 992 R0
SYMATTR InstName L17
SYMATTR Value 300n
SYMBOL ind 624 992 R0
SYMATTR InstName L18
SYMATTR Value 39n
SYMBOL ind 832 1088 R90
WINDOW 0 5 56 VBottom 2
WINDOW 3 32 56 VTop 2
SYMATTR InstName L25
SYMATTR Value 180n
SYMBOL cap 976 992 R90
WINDOW 0 0 32 VBottom 2
WINDOW 3 32 32 VTop 2
SYMATTR InstName C47
SYMATTR Value 1n
SYMBOL cap 976 1088 R90
WINDOW 0 0 32 VBottom 2
WINDOW 3 32 32 VTop 2
SYMATTR InstName C48
SYMATTR Value 1n
SYMBOL cap 512 640 R0
SYMATTR InstName C49
SYMATTR Value 10n
SYMBOL cap 432 640 R0
SYMATTR InstName C50
SYMATTR Value 1µ
SYMBOL cap 752 1360 R180
WINDOW 0 24 56 Left 2
WINDOW 3 24 8 Left 2
SYMATTR InstName C51
SYMATTR Value 160p
SYMBOL FerriteBead 688 704 R0
SYMATTR InstName L26
SYMATTR Value 104n
SYMATTR SpiceLine Ipk=0.3 Rser=0.25 Rpar=85 Cpar=212f mfg="Würth Elektronik" pn="74279260 WE-CBF 0603"
SYMBOL voltage -272 1152 R90
WINDOW 0 -32 56 VBottom 2
WINDOW 3 32 56 VTop 2
WINDOW 123 60 56 VTop 2
WINDOW 39 88 56 VTop 2
SYMATTR InstName V14
SYMATTR Value ""
SYMATTR Value2 AC 1
SYMATTR SpiceLine Rser=50
SYMBOL cap 976 1184 R90
WINDOW 0 0 32 VBottom 2
WINDOW 3 32 32 VTop 2
SYMATTR InstName C52
SYMATTR Value 1n
SYMBOL voltage 384 576 R180
WINDOW 0 24 96 Left 2
WINDOW 3 24 16 Left 2
WINDOW 123 0 0 Left 0
WINDOW 39 0 0 Left 0
SYMATTR InstName V15
SYMATTR Value 50
SYMBOL cap 656 1360 R180
WINDOW 0 24 56 Left 2
WINDOW 3 24 8 Left 2
SYMATTR InstName C53
SYMATTR Value 160p
SYMBOL cap 816 992 R90
WINDOW 0 0 32 VBottom 2
WINDOW 3 32 32 VTop 2
SYMATTR InstName C54
SYMATTR Value 15p
SYMBOL cap 496 1088 R0
SYMATTR InstName C41
SYMATTR Value 33p
SYMBOL cap -1936 1088 R90
WINDOW 0 0 32 VBottom 2
WINDOW 3 32 32 VTop 2
SYMATTR InstName C55
SYMATTR Value 10n
SYMBOL res -1728 1072 R180
WINDOW 0 36 76 Left 2
WINDOW 3 36 40 Left 2
SYMATTR InstName R9
SYMATTR Value 75
SYMBOL cap -1024 800 R90
WINDOW 0 26 95 VBottom 2
WINDOW 3 32 32 VTop 2
SYMATTR InstName C56
SYMATTR Value 10n
SYMBOL cap -944 1312 R180
WINDOW 0 24 56 Left 2
WINDOW 3 24 8 Left 2
SYMATTR InstName C57
SYMATTR Value 200p
SYMBOL res -464 944 R90
WINDOW 0 0 56 VBottom 2
WINDOW 3 32 56 VTop 2
SYMATTR InstName R10
SYMATTR Value 50
SYMBOL MRF101AN-BN-SP -1360 1088 R0
SYMATTR InstName U5
SYMBOL cap -1776 1088 R90
WINDOW 0 0 32 VBottom 2
WINDOW 3 32 32 VTop 2
SYMATTR InstName C58
SYMATTR Value 10n
SYMBOL ind -1920 1088 R0
SYMATTR InstName L27
SYMATTR Value 820n
SYMBOL cap -1648 1024 R180
WINDOW 0 24 56 Left 2
WINDOW 3 24 8 Left 2
SYMATTR InstName C59
SYMATTR Value 1µ
SYMBOL cap -1584 1024 R180
WINDOW 0 24 56 Left 2
WINDOW 3 24 8 Left 2
SYMATTR InstName C60
SYMATTR Value 1µ
SYMBOL voltage -1744 928 R180
WINDOW 0 24 96 Left 2
WINDOW 3 24 16 Left 2
WINDOW 123 0 0 Left 0
WINDOW 39 0 0 Left 0
SYMATTR InstName V16
SYMATTR Value 2.66
SYMBOL ind -1248 944 R0
WINDOW 0 25 -7 Left 2
WINDOW 3 -7 117 Left 2
SYMATTR InstName L28
SYMATTR Value 500n
SYMBOL ind -1152 944 R0
WINDOW 0 -5 -6 Left 2
WINDOW 3 38 54 Left 2
SYMATTR InstName L29
SYMATTR Value 75n
SYMBOL ind -944 1040 R90
WINDOW 0 5 56 VBottom 2
WINDOW 3 32 56 VTop 2
SYMATTR InstName L30
SYMATTR Value 330n
SYMBOL cap -800 944 R90
WINDOW 0 0 32 VBottom 2
WINDOW 3 32 32 VTop 2
SYMATTR InstName C61
SYMATTR Value 10n
SYMBOL cap -1264 592 R0
SYMATTR InstName C63
SYMATTR Value 10n
SYMBOL cap -1344 592 R0
SYMATTR InstName C64
SYMATTR Value 1µ
SYMBOL cap -1024 1312 R180
WINDOW 0 24 56 Left 2
WINDOW 3 24 8 Left 2
SYMATTR InstName C65
SYMATTR Value 360p
SYMBOL FerriteBead -1088 656 R0
SYMATTR InstName L31
SYMATTR Value 104n
SYMATTR SpiceLine Ipk=0.3 Rser=0.25 Rpar=85 Cpar=212f mfg="Würth Elektronik" pn="74279260 WE-CBF 0603"
SYMBOL voltage -2048 1104 R90
WINDOW 0 -32 56 VBottom 2
WINDOW 3 32 56 VTop 2
WINDOW 123 60 56 VTop 2
WINDOW 39 88 56 VTop 2
SYMATTR InstName V17
SYMATTR Value ""
SYMATTR Value2 AC 1
SYMATTR SpiceLine Rser=50
SYMBOL voltage -1392 528 R180
WINDOW 0 24 96 Left 2
WINDOW 3 24 16 Left 2
WINDOW 123 0 0 Left 0
WINDOW 39 0 0 Left 0
SYMATTR InstName V18
SYMATTR Value 50
SYMBOL cap -1120 1312 R180
WINDOW 0 24 56 Left 2
WINDOW 3 24 8 Left 2
SYMATTR InstName C81
SYMATTR Value 390p
SYMBOL cap -960 944 R90
WINDOW 0 0 32 VBottom 2
WINDOW 3 32 32 VTop 2
SYMATTR InstName C82
SYMATTR Value 68p
SYMBOL cap -1056 1024 R90
WINDOW 0 88 34 VBottom 2
WINDOW 3 32 32 VTop 2
SYMATTR InstName C83
SYMATTR Value 33p
SYMBOL cap -1024 752 R90
WINDOW 0 26 95 VBottom 2
WINDOW 3 32 32 VTop 2
SYMATTR InstName C84
SYMATTR Value 10n
SYMBOL cap -1840 4112 R90
WINDOW 0 0 32 VBottom 2
WINDOW 3 32 32 VTop 2
SYMATTR InstName C62
SYMATTR Value 100n
SYMBOL res -1632 4096 R180
WINDOW 0 36 76 Left 2
WINDOW 3 36 40 Left 2
SYMATTR InstName R11
SYMATTR Value 51
SYMBOL cap -928 3744 R90
WINDOW 0 43 94 VBottom 2
WINDOW 3 34 38 VTop 2
SYMATTR InstName C67
SYMATTR Value .1µ
SYMBOL cap -928 3824 R90
WINDOW 0 26 95 VBottom 2
WINDOW 3 32 32 VTop 2
SYMATTR InstName C85
SYMATTR Value 1n
SYMBOL voltage -1296 3536 R180
WINDOW 0 24 96 Left 2
WINDOW 3 24 16 Left 2
WINDOW 123 0 0 Left 0
WINDOW 39 0 0 Left 0
SYMATTR InstName V19
SYMATTR Value 50
SYMBOL res -368 3968 R90
WINDOW 0 0 56 VBottom 2
WINDOW 3 32 56 VTop 2
SYMATTR InstName R12
SYMATTR Value 50
SYMBOL MRF101AN-BN-SP -1264 4112 R0
SYMATTR InstName U6
SYMBOL cap -1568 4048 R180
WINDOW 0 -9 -40 Left 2
WINDOW 3 -7 85 Left 2
SYMATTR InstName C89
SYMATTR Value 100n
SYMBOL cap -704 3968 R90
WINDOW 0 0 32 VBottom 2
WINDOW 3 32 32 VTop 2
SYMATTR InstName C90
SYMATTR Value 100n
SYMBOL cap -704 4064 R90
WINDOW 0 0 32 VBottom 2
WINDOW 3 32 32 VTop 2
SYMATTR InstName C91
SYMATTR Value 100n
SYMBOL cap -1168 3616 R0
SYMATTR InstName C92
SYMATTR Value 330n
SYMBOL voltage -1952 4128 R90
WINDOW 0 -32 56 VBottom 2
WINDOW 3 32 56 VTop 2
WINDOW 123 60 56 VTop 2
WINDOW 39 88 56 VTop 2
SYMATTR InstName V20
SYMATTR Value ""
SYMATTR Value2 AC 1
SYMATTR SpiceLine Rser=50
SYMBOL voltage -1808 3920 R0
WINDOW 123 0 0 Left 0
WINDOW 39 0 0 Left 0
SYMATTR InstName V21
SYMATTR Value 2.66
SYMBOL res -1632 4112 R90
WINDOW 0 0 56 VBottom 2
WINDOW 3 32 56 VTop 2
SYMATTR InstName R13
SYMATTR Value 27
SYMBOL ind -1392 4096 R90
WINDOW 0 5 56 VBottom 2
WINDOW 3 32 56 VTop 2
SYMATTR InstName L32
SYMATTR Value 47n
SYMBOL cap -1120 4160 R180
WINDOW 0 -64 45 Left 2
WINDOW 3 -75 11 Left 2
SYMATTR InstName C87
SYMATTR Value 220p
SYMBOL res -1312 3984 R90
WINDOW 0 0 56 VBottom 2
WINDOW 3 32 56 VTop 2
SYMATTR InstName R14
SYMATTR Value 400
SYMBOL cap -1248 3984 R90
WINDOW 0 0 32 VBottom 2
WINDOW 3 32 32 VTop 2
SYMATTR InstName C88
SYMATTR Value 100n
SYMBOL cap -928 3680 R90
WINDOW 0 43 94 VBottom 2
WINDOW 3 34 38 VTop 2
SYMATTR InstName C86
SYMATTR Value .1µ
SYMBOL cap 96 4112 R90
WINDOW 0 0 32 VBottom 2
WINDOW 3 32 32 VTop 2
SYMATTR InstName C93
SYMATTR Value 1.5n
SYMBOL res 112 4096 R180
WINDOW 0 36 76 Left 2
WINDOW 3 36 40 Left 2
SYMATTR InstName R15
SYMATTR Value 51
SYMBOL cap 816 3744 R90
WINDOW 0 43 94 VBottom 2
WINDOW 3 34 38 VTop 2
SYMATTR InstName C94
SYMATTR Value .1µ
SYMBOL cap 816 3824 R90
WINDOW 0 26 95 VBottom 2
WINDOW 3 32 32 VTop 2
SYMATTR InstName C95
SYMATTR Value 1n
SYMBOL voltage 448 3536 R180
WINDOW 0 24 96 Left 2
WINDOW 3 24 16 Left 2
WINDOW 123 0 0 Left 0
WINDOW 39 0 0 Left 0
SYMATTR InstName V22
SYMATTR Value 50
SYMBOL res 1376 3968 R90
WINDOW 0 0 56 VBottom 2
WINDOW 3 32 56 VTop 2
SYMATTR InstName R16
SYMATTR Value 50
SYMBOL cap 1040 3968 R90
WINDOW 0 0 32 VBottom 2
WINDOW 3 32 32 VTop 2
SYMATTR InstName C97
SYMATTR Value 100n
SYMBOL voltage -208 4128 R90
WINDOW 0 -32 56 VBottom 2
WINDOW 3 32 56 VTop 2
WINDOW 123 60 56 VTop 2
WINDOW 39 88 56 VTop 2
SYMATTR InstName V23